15
benzo_acid_Water.out	Energy: -264061.8921483
C          1.90067        1.17986        0.00040
C          2.56046       -0.04580       -0.00003
C          1.83267       -1.23182       -0.00045
C          0.44455       -1.19686       -0.00036
C         -0.21903        0.03198        0.00007
C          0.51362        1.22033        0.00045
H          3.64435       -0.07689       -0.00010
H         -0.11891       -2.12137       -0.00060
H         -0.00604        2.17093        0.00086
C         -1.70085        0.11464       -0.00007
O         -2.32912        1.15508       -0.00104
O         -2.30392       -1.07797        0.00097
H         -3.26171       -0.94181        0.00042
H          2.34714       -2.18560       -0.00082
H          2.46695        2.10390        0.00071
