14
benzo_anion_Water.out	Energy: -263774.0827071
C         -1.82668        1.20351       -0.00013
C         -2.52541       -0.00000        0.00001
C         -1.82668       -1.20351        0.00013
C         -0.43620       -1.20197        0.00007
C          0.27356        0.00000       -0.00001
C         -0.43620        1.20197       -0.00008
H         -3.61002       -0.00000        0.00002
H          0.10529       -2.14057        0.00010
H          0.10529        2.14058       -0.00012
C          1.79510        0.00000       -0.00002
O          2.37660        1.11606        0.00028
O          2.37659       -1.11606       -0.00025
H         -2.36548        2.14468       -0.00030
H         -2.36548       -2.14469        0.00031
