25
BO2-pip.out	Energy: -374427.7171261
B         -4.40181       -0.12768       -0.36413
O         -3.47296        0.57653       -1.01542
O         -4.45368       -0.89451        0.70085
C          1.02796        1.29231        0.62608
C          0.77206       -1.13191        0.43351
C         -0.58288       -0.93443       -0.22064
C         -0.32118        1.49252       -0.03623
H          1.22265       -2.02966        0.02070
H          0.91035        1.28917        1.71616
H          1.68811        2.11172        0.35533
H         -0.48735       -0.87978       -1.30624
H         -1.25386       -1.75270        0.03837
H         -0.21758        1.58184       -1.11868
H         -0.80308        2.38920        0.35078
H          0.64590       -1.27882        1.51259
N          1.62684        0.02969        0.20762
N         -1.20759        0.33354        0.22552
H         -1.40434        0.27521        1.22653
H         -2.17412        0.45640       -0.29179
C          2.93939       -0.03592       -0.11298
O          3.64441        0.98234       -0.15329
C          3.52608       -1.38587       -0.43044
H          3.44164       -2.06053        0.42484
H          3.01711       -1.84953       -1.27845
H          4.57807       -1.25186       -0.67444
