23
Br-pip.out	Energy: -272614.8426346
Br        -3.51672       -0.07208       -0.33322
C          1.52964        1.34199        0.53624
C          1.54563       -1.09030        0.77698
C          0.05888       -1.13591        0.48170
C          0.04575        1.30784        0.23202
H          1.99297       -2.00466        0.39897
H          1.68910        1.52509        1.60568
H          1.98620        2.15520       -0.02147
H         -0.13348       -1.26555       -0.58389
H         -0.41381       -1.94877        1.03061
H         -0.13816        1.21001       -0.83852
H         -0.44343        2.20804        0.60021
H          1.70678       -1.05478        1.86086
N          2.16233        0.08237        0.16268
N         -0.59288        0.13582        0.88618
H         -0.54855        0.24069        1.90174
H         -1.60597        0.09489        0.58859
C          3.39072        0.07887       -0.40929
O          3.95280        1.13363       -0.73099
C          4.04998       -1.25146       -0.65527
H          4.25212       -1.76152        0.28987
H          3.41803       -1.90033       -1.26542
H          4.99136       -1.07800       -1.17304
