26
ClO3-pip.out	Energy: -694431.5561672
O         -2.82932       -0.84232       -0.74231
O         -1.95308        1.43777       -0.73968
O         -3.03012        0.53736        1.25850
Cl        -3.09641        0.58084       -0.24768
C          1.61768       -0.74240        1.51548
C          2.04094       -1.32894       -0.79151
C          0.55734       -1.26316       -1.11862
C          0.12177       -0.66053        1.25922
H          2.61900       -1.09676       -1.68365
H          1.89503       -1.75360        1.82947
H          1.88869       -0.04650        2.30647
H          0.26963       -0.26639       -1.46044
H          0.28054       -2.00190       -1.87072
H         -0.17489        0.35376        0.98661
H         -0.45354       -0.98961        2.12465
H          2.31100       -2.34289       -0.47891
N          2.35872       -0.41446        0.30121
N         -0.24769       -1.54227        0.10905
H         -0.12332       -2.52251        0.38056
H         -1.25481       -1.39310       -0.12457
C          2.71933        0.88875        0.08828
O          2.65420        1.72708        0.99218
C          3.23893        1.25920       -1.27925
H          4.04369        0.59369       -1.60418
H          2.43673        1.20992       -2.02326
H          3.61454        2.28193       -1.23445
