27
ClO4-pip.out	Energy: -741570.1123956
O         -2.66918        0.24875        1.43457
O         -4.23043        0.70715       -0.35619
O         -1.90992        1.35348       -0.57482
Cl        -2.84053        0.34392       -0.02893
O         -2.53025       -0.98159       -0.63935
C          2.10804       -0.95823        1.33596
C          2.40068       -1.07594       -1.06189
C          0.89608       -1.09468       -1.28256
C          0.59513       -0.96181        1.18842
H          2.88699       -0.63154       -1.92796
H          2.48235       -1.98165        1.43724
H          2.38440       -0.40032        2.22812
H          0.49930       -0.08583       -1.41572
H          0.62305       -1.71230       -2.13844
H          0.20908        0.05670        1.11294
H          0.10770       -1.48112        2.01338
H          2.77657       -2.09932       -0.96340
N          2.72989       -0.34985        0.16279
N          0.21838       -1.66674       -0.07746
H          0.45942       -2.65982        0.00666
H         -0.80422       -1.60057       -0.21486
C          2.94344        1.00401        0.17597
O          2.86540        1.65114        1.22358
C          3.32127        1.66970       -1.12370
H          4.17151        1.17482       -1.60185
H          2.48122        1.65373       -1.82628
H          3.58098        2.70705       -0.91077
