23
F-pip.out	Energy: -326993.9613364
F          3.72457        0.22355       -1.12527
C         -0.23608       -1.33967        0.81849
C         -0.32896        1.06748        1.03912
C          0.97318        1.21062        0.26689
C          1.06251       -1.24409        0.03572
H         -0.93555        1.95707        0.89718
H         -0.02726       -1.42830        1.88815
H         -0.79580       -2.21636        0.50525
H          0.77340        1.35447       -0.79689
H          1.55369        2.05535        0.63615
H          0.86284       -1.19875       -1.03655
H          1.70441       -2.09975        0.24248
H         -0.12266        0.97241        2.10886
N         -1.03591       -0.13556        0.60823
N          1.80702       -0.01117        0.39787
H          2.12037       -0.08878        1.36575
H          2.70027        0.09014       -0.27275
C         -2.01424       -0.13085       -0.33274
O         -2.39948       -1.17912       -0.86624
C         -2.64693        1.18768       -0.68859
H         -2.99911        1.71735        0.19879
H         -1.92642        1.82915       -1.20279
H         -3.48817        0.99719       -1.35234
