27
HCO3-pip.out	Energy: -430126.4639396
O         -3.14204       -0.03497       -1.08786
O         -3.45056        0.05599        1.14846
O         -5.19270       -0.14770       -0.26682
C          1.40046        1.29546        0.46834
C          1.39264       -1.14908        0.54866
C          0.09090       -1.17590       -0.23601
C          0.09734        1.28729       -0.31160
H          1.96418       -2.03895        0.29458
H          1.19009        1.40694        1.53980
H          2.00958        2.13879        0.14889
H          0.27515       -1.22716       -1.31093
H         -0.52590       -2.02292        0.06658
H          0.27513        1.27239       -1.38865
H         -0.51360        2.15425       -0.05761
H          1.17398       -1.18333        1.62381
N          2.14756        0.06258        0.24895
N         -0.68367        0.06631        0.01897
H         -0.96904        0.09510        1.00370
H         -1.60105        0.04605       -0.51645
C          3.46426        0.10574       -0.08627
O          4.04678        1.18138       -0.27209
C          4.19793       -1.20646       -0.22697
H          4.17788       -1.77273        0.70944
H          3.75588       -1.82809       -1.01165
H          5.23425       -0.98903       -0.48698
C         -3.83687       -0.03283       -0.03342
H         -5.62539       -0.13651        0.60011
