16
pip-water.out	Energy: -168137.1697222
C         -1.20108       -0.72692       -0.23107
C          1.20147       -0.72633       -0.23107
C          1.20108        0.72692        0.23107
C         -1.20147        0.72633        0.23107
H          2.08585       -1.24182        0.15167
H         -1.25501       -0.75632       -1.32584
H         -2.08521       -1.24287        0.15164
H          1.25501        0.75632        1.32584
H          2.08521        1.24287       -0.15164
H         -1.25543        0.75571        1.32585
H         -2.08585        1.24182       -0.15167
H          1.25543       -0.75571       -1.32584
N          0.00038       -1.46298        0.18078
H          0.00039       -1.49581        1.19761
N         -0.00038        1.46298       -0.18078
H         -0.00039        1.49581       -1.19761
