17
pip-H-water.out	Energy: -168433.1244026
C          0.77586        1.19710        0.23170
C          0.76753       -1.20224        0.23218
C         -0.67751       -1.23782       -0.23891
C         -0.66921        1.24236       -0.23837
H          1.27181       -2.09129       -0.14655
H          0.80187        1.24778        1.32481
H          1.28590        2.08230       -0.14824
H         -0.74135       -1.25289       -1.32782
H         -1.21756       -2.09124        0.16838
H         -0.73359        1.25829       -1.32725
H         -1.20330        2.09934        0.16946
H          0.79239       -1.25194        1.32544
N          1.49154       -0.00514       -0.19161
H          1.53803       -0.00539       -1.20712
N         -1.37815        0.00456        0.21370
H         -1.43295        0.00431        1.23492
H         -2.33500        0.00840       -0.14028
